/*--------------------------------*- C++ -*----------------------------------*\
  =========                 |
  \\      /  F ield         | OpenFOAM: The Open Source CFD Toolbox
   \\    /   O peration     | Website:  https://openfoam.org
    \\  /    A nd           | Version:  10
     \\/     M anipulation  |
\*---------------------------------------------------------------------------*/
FoamFile
{
    format      ascii;
    class       polyBoundaryMesh;
    location    "constant/polyMesh";
    object      boundary;
}
// * * * * * * * * * * * * * * * * * * * * * * * * * * * * * * * * * * * * * //

6
(
    left
    {
        type            cyclic;
        inGroups        List<word> 1(cyclic);
        nFaces          128;
        startFace       32368;
        matchTolerance  0.0001;
        neighbourPatch  right;
        transformType   translational;
        separation      (-1 0 1.387778780781446e-17);
    }
    right
    {
        type            cyclic;
        inGroups        List<word> 1(cyclic);
        nFaces          128;
        startFace       32496;
        matchTolerance  0.0001;
        neighbourPatch  left;
        transformType   translational;
        separation      (1 0 -1.387778780781446e-17);
    }
    bottom
    {
        type            cyclic;
        inGroups        List<word> 1(cyclic);
        nFaces          128;
        startFace       32624;
        matchTolerance  0.0001;
        neighbourPatch  top;
        transformType   translational;
        separation      (0 -0.9999999999999999 -2.081668171172169e-17);
    }
    top
    {
        type            cyclic;
        inGroups        List<word> 1(cyclic);
        nFaces          128;
        startFace       32752;
        matchTolerance  0.0001;
        neighbourPatch  bottom;
        transformType   translational;
        separation      (0 0.9999999999999999 2.081668171172169e-17);
    }
    hole
    {
        type            wall;
        inGroups        List<word> 1(wall);
        nFaces          32;
        startFace       32880;
    }
    frontAndBack
    {
        type            empty;
        inGroups        List<word> 1(empty);
        nFaces          32640;
        startFace       32912;
    }
)

// ************************************************************************* //
