FoamFile
{
    version 2.0;
    format ascii;
    class volScalarField;
    object rho;
}

dimensions      [1 -3 0 0 0 0 0];
internalField   uniform 1.176;

boundaryField
{
    left
    {
        type            zeroGradient;
    }
    right
    {
        type            zeroGradient;
    }
    top
    {
        type            zeroGradient;
    }
    bottom
    {
        type            zeroGradient;
    }
    frontAndBack
    {
        type            empty;
    }
}
