/*--------------------------------*- C++ -*----------------------------------*\
  =========                 |
  \\      /  F ield         | OpenFOAM: The Open Source CFD Toolbox
   \\    /   O peration     | Website:  https://openfoam.org
    \\  /    A nd           | Version:  10
     \\/     M anipulation  |
\*---------------------------------------------------------------------------*/
FoamFile
{
    format      ascii;
    class       polyBoundaryMesh;
    location    "constant/polyMesh";
    object      boundary;
}
// * * * * * * * * * * * * * * * * * * * * * * * * * * * * * * * * * * * * * //

6
(
    left
    {
        type            patch;
        nFaces          128;
        startFace       32224;
    }
    right
    {
        type            patch;
        nFaces          128;
        startFace       32352;
    }
    bottom
    {
        type            patch;
        nFaces          128;
        startFace       32480;
    }
    top
    {
        type            patch;
        nFaces          128;
        startFace       32608;
    }
    frontAndBack
    {
        type            empty;
        inGroups        List<word> 1(empty);
        nFaces          32512;
        startFace       32736;
    }
    defaultFaces
    {
        type            empty;
        inGroups        List<word> 1(empty);
        nFaces          64;
        startFace       65248;
    }
)

// ************************************************************************* //
